<?xml version="1.0" encoding="UTF-8"?>

<!-- generated on 02/27/21 14:30:16 by Eclipse SUMO netconvert Version 1.8.0
<configuration xmlns:xsi="http://www.w3.org/2001/XMLSchema-instance" xsi:noNamespaceSchemaLocation="http://sumo.dlr.de/xsd/netconvertConfiguration.xsd">

    <input>
        <osm-files value="Deggendorf.osm"/>
    </input>

    <output>
        <output-file value="deggendorf.net.xml"/>
    </output>

    <projection>
        <proj.utm value="true"/>
    </projection>

    <report>
        <aggregate-warnings value="5"/>
    </report>

</configuration>
-->

<net version="1.6" junctionCornerDetail="5" limitTurnSpeed="5.50" xmlns:xsi="http://www.w3.org/2001/XMLSchema-instance" xsi:noNamespaceSchemaLocation="http://sumo.dlr.de/xsd/net_file.xsd">

    <location netOffset="-349648.08,-5410437.92" convBoundary="0.00,0.00,1003.38,685.85" origBoundary="12.951211,48.827502,12.964875,48.842064" projParameter="+proj=utm +zone=33 +ellps=WGS84 +datum=WGS84 +units=m +no_defs"/>

    <type id="highway.bridleway" priority="1" numLanes="1" speed="2.78" allow="pedestrian" oneway="1" width="2.00"/>
    <type id="highway.bus_guideway" priority="1" numLanes="1" speed="27.78" allow="bus" oneway="1"/>
    <type id="highway.cycleway" priority="1" numLanes="1" speed="8.33" allow="bicycle" oneway="0" width="1.00"/>
    <type id="highway.footway" priority="1" numLanes="1" speed="2.78" allow="pedestrian" oneway="1" width="2.00"/>
    <type id="highway.ford" priority="1" numLanes="1" speed="2.78" allow="army" oneway="0"/>
    <type id="highway.living_street" priority="2" numLanes="1" speed="2.78" disallow="tram rail_urban rail rail_electric rail_fast ship" oneway="0"/>
    <type id="highway.motorway" priority="14" numLanes="2" speed="39.44" allow="private emergency authority army vip passenger hov taxi bus coach delivery truck trailer motorcycle evehicle custom1 custom2" oneway="1"/>
    <type id="highway.motorway_link" priority="9" numLanes="1" speed="22.22" allow="private emergency authority army vip passenger hov taxi bus coach delivery truck trailer motorcycle evehicle custom1 custom2" oneway="1"/>
    <type id="highway.path" priority="1" numLanes="1" speed="2.78" allow="pedestrian bicycle" oneway="0" width="2.00"/>
    <type id="highway.pedestrian" priority="1" numLanes="1" speed="2.78" allow="pedestrian" oneway="1" width="2.00"/>
    <type id="highway.primary" priority="12" numLanes="2" speed="27.78" disallow="tram rail_urban rail rail_electric rail_fast ship" oneway="0"/>
    <type id="highway.primary_link" priority="7" numLanes="1" speed="22.22" disallow="tram rail_urban rail rail_electric rail_fast ship" oneway="0"/>
    <type id="highway.raceway" priority="15" numLanes="2" speed="83.33" allow="vip" oneway="0"/>
    <type id="highway.residential" priority="3" numLanes="1" speed="13.89" disallow="tram rail_urban rail rail_electric rail_fast ship" oneway="0"/>
    <type id="highway.secondary" priority="11" numLanes="1" speed="27.78" disallow="tram rail_urban rail rail_electric rail_fast ship" oneway="0"/>
    <type id="highway.secondary_link" priority="6" numLanes="1" speed="22.22" disallow="tram rail_urban rail rail_electric rail_fast ship" oneway="0"/>
    <type id="highway.service" priority="1" numLanes="1" speed="5.56" allow="pedestrian delivery bicycle" oneway="0"/>
    <type id="highway.stairs" priority="1" numLanes="1" speed="1.39" allow="pedestrian" oneway="1" width="2.00"/>
    <type id="highway.step" priority="1" numLanes="1" speed="1.39" allow="pedestrian" oneway="1" width="2.00"/>
    <type id="highway.steps" priority="1" numLanes="1" speed="1.39" allow="pedestrian" oneway="1" width="2.00"/>
    <type id="highway.tertiary" priority="10" numLanes="1" speed="22.22" disallow="tram rail_urban rail rail_electric rail_fast ship" oneway="0"/>
    <type id="highway.tertiary_link" priority="5" numLanes="1" speed="22.22" disallow="tram rail_urban rail rail_electric rail_fast ship" oneway="0"/>
    <type id="highway.track" priority="1" numLanes="1" speed="5.56" allow="pedestrian motorcycle moped bicycle" oneway="0"/>
    <type id="highway.trunk" priority="13" numLanes="2" speed="27.78" disallow="pedestrian bicycle tram rail_urban rail rail_electric rail_fast ship" oneway="0"/>
    <type id="highway.trunk_link" priority="8" numLanes="1" speed="22.22" disallow="pedestrian bicycle tram rail_urban rail rail_electric rail_fast ship" oneway="0"/>
    <type id="highway.unclassified" priority="4" numLanes="1" speed="13.89" disallow="tram rail_urban rail rail_electric rail_fast ship" oneway="0"/>
    <type id="highway.unsurfaced" priority="1" numLanes="1" speed="8.33" disallow="tram rail_urban rail rail_electric rail_fast ship" oneway="0"/>
    <type id="railway.highspeed" priority="21" numLanes="1" speed="69.44" allow="rail_fast" oneway="1"/>
    <type id="railway.light_rail" priority="19" numLanes="1" speed="27.78" allow="rail_urban" oneway="1"/>
    <type id="railway.preserved" priority="16" numLanes="1" speed="27.78" allow="rail" oneway="1"/>
    <type id="railway.rail" priority="20" numLanes="1" speed="44.44" allow="rail" oneway="1"/>
    <type id="railway.subway" priority="18" numLanes="1" speed="27.78" allow="rail_urban" oneway="1"/>
    <type id="railway.tram" priority="17" numLanes="1" speed="13.89" allow="tram" oneway="1"/>

    <edge id=":1098156985_0" function="internal">
        <lane id=":1098156985_0_0" index="0" allow="pedestrian bicycle" speed="2.78" length="7.32" width="2.00" shape="102.81,116.94 102.22,114.88 102.11,113.41 102.26,111.89 102.48,109.73"/>
    </edge>
    <edge id=":1098156985_1" function="internal">
        <lane id=":1098156985_1_0" index="0" allow="pedestrian bicycle" speed="2.78" length="2.92" width="2.00" shape="102.81,116.94 103.03,116.07 103.42,115.67 103.98,115.74 104.70,116.29"/>
    </edge>
    <edge id=":1098156985_2" function="internal">
        <lane id=":1098156985_2_0" index="0" allow="pedestrian bicycle" speed="2.78" length="6.51" width="2.00" shape="104.48,109.87 104.27,111.80 104.11,113.14 104.19,114.45 104.70,116.29"/>
    </edge>
    <edge id=":1098156985_3" function="internal">
        <lane id=":1098156985_3_0" index="0" allow="pedestrian bicycle" speed="2.78" length="2.92" width="2.00" shape="104.48,109.87 103.93,110.58 103.41,110.80 102.93,110.51 102.48,109.73"/>
    </edge>
    <edge id=":126734343_0" function="internal">
        <lane id=":126734343_0_0" index="0" disallow="tram rail_urban rail rail_electric rail_fast ship" speed="13.89" length="11.53" shape="525.18,257.67 522.80,260.25 521.30,262.26 520.08,264.32 518.55,267.04"/>
    </edge>
    <edge id=":126734343_1" function="internal">
        <lane id=":126734343_1_0" index="0" disallow="tram rail_urban rail rail_electric rail_fast ship" speed="13.89" length="11.55" shape="525.18,257.67 522.50,259.93 520.31,261.03 518.02,262.01 515.01,263.91"/>
        <lane id=":126734343_1_1" index="1" disallow="tram rail_urban rail rail_electric rail_fast ship" speed="13.89" length="11.55" shape="522.90,255.43 520.32,257.59 518.20,258.63 515.98,259.54 513.08,261.35"/>
        <lane id=":126734343_1_2" index="2" disallow="tram rail_urban rail rail_electric rail_fast ship" speed="13.89" length="11.55" shape="520.62,253.18 518.13,255.25 516.09,256.22 513.94,257.07 511.15,258.80"/>
    </edge>
    <edge id=":1360376575_0" function="internal">
        <lane id=":1360376575_0_0" index="0" allow="pedestrian bicycle" speed="2.78" length="2.92" width="2.00" shape="90.69,67.86 90.93,66.99 91.33,66.60 91.89,66.69 92.59,67.25"/>
    </edge>
    <edge id=":1360376579_0" function="internal">
        <lane id=":1360376579_0_0" index="0" allow="pedestrian bicycle" speed="2.78" length="6.50" width="2.00" shape="104.17,103.26 104.67,105.10 104.79,106.41 104.68,107.75 104.49,109.67"/>
    </edge>
    <edge id=":1360376579_1" function="internal">
        <lane id=":1360376579_1_0" index="0" allow="pedestrian bicycle" speed="2.78" length="2.92" width="2.00" shape="104.17,103.26 103.93,104.12 103.53,104.51 102.97,104.43 102.27,103.87"/>
    </edge>
    <edge id=":1360376579_2" function="internal">
        <lane id=":1360376579_2_0" index="0" allow="pedestrian bicycle" speed="2.78" length="5.73" width="2.00" shape="102.50,109.53 102.67,107.83 102.78,106.65 102.70,105.49 102.27,103.87"/>
    </edge>
    <edge id=":1360376579_3" function="internal">
        <lane id=":1360376579_3_0" index="0" allow="pedestrian bicycle" speed="2.78" length="2.92" width="2.00" shape="102.50,109.53 103.05,108.82 103.57,108.60 104.05,108.89 104.49,109.67"/>
    </edge>
    <edge id=":1360376595_0" function="internal">
        <lane id=":1360376595_0_0" index="0" allow="pedestrian delivery bicycle" speed="5.56" length="8.93" shape="166.91,167.58 162.47,159.83"/>
    </edge>
    <edge id=":1360376595_1" function="internal">
        <lane id=":1360376595_1_0" index="0" allow="pedestrian delivery bicycle" speed="3.65" length="2.34" shape="166.91,167.58 167.01,166.14 167.50,165.40"/>
    </edge>
    <edge id=":1360376595_4" function="internal">
        <lane id=":1360376595_4_0" index="0" allow="pedestrian delivery bicycle" speed="3.65" length="2.34" shape="167.50,165.40 168.40,165.35 169.69,165.99"/>
    </edge>
    <edge id=":1360376595_2" function="internal">
        <lane id=":1360376595_2_0" index="0" allow="pedestrian delivery bicycle" speed="5.56" length="8.93" shape="165.24,158.24 169.69,165.99"/>
    </edge>
    <edge id=":1360376595_3" function="internal">
        <lane id=":1360376595_3_0" index="0" allow="pedestrian delivery bicycle" speed="3.65" length="2.34" shape="165.24,158.24 165.15,159.68 164.65,160.42"/>
    </edge>
    <edge id=":1360376595_5" function="internal">
        <lane id=":1360376595_5_0" index="0" allow="pedestrian delivery bicycle" speed="3.65" length="2.34" shape="164.65,160.42 163.76,160.48 162.47,159.83"/>
    </edge>
    <edge id=":1364509483_0" function="internal">
        <lane id=":1364509483_0_0" index="0" disallow="tram rail_urban rail rail_electric rail_fast ship" speed="13.89" length="10.15" shape="507.49,352.60 508.35,355.42 509.67,357.18 510.86,358.94 511.34,361.78"/>
    </edge>
    <edge id=":1364509483_1" function="internal">
        <lane id=":1364509483_1_0" index="0" allow="pedestrian bicycle" speed="7.89" length="3.93" width="2.00" shape="507.49,352.60 507.01,355.60 506.33,356.18"/>
    </edge>
    <edge id=":1364509483_2" function="internal">
        <lane id=":1364509483_2_0" index="0" disallow="tram rail_urban rail rail_electric rail_fast ship" speed="3.65" length="2.34" shape="507.49,352.60 506.84,353.89 506.09,354.39"/>
    </edge>
    <edge id=":1364509483_10" function="internal">
        <lane id=":1364509483_10_0" index="0" allow="pedestrian bicycle" speed="7.89" length="12.16" width="2.00" shape="506.33,356.18 504.74,357.54 500.65,358.44 494.76,358.30"/>
    </edge>
    <edge id=":1364509483_11" function="internal">
        <lane id=":1364509483_11_0" index="0" disallow="tram rail_urban rail rail_electric rail_fast ship" speed="3.65" length="2.34" shape="506.09,354.39 505.25,354.09 504.31,352.99"/>
    </edge>
    <edge id=":1364509483_3" function="internal">
        <lane id=":1364509483_3_0" index="0" allow="pedestrian bicycle" speed="4.44" length="4.73" shape="494.96,356.30 496.40,356.27 497.38,355.84 497.90,355.00 497.96,353.77"/>
    </edge>
    <edge id=":1364509483_4" function="internal">
        <lane id=":1364509483_4_0" index="0" allow="pedestrian bicycle" speed="8.33" length="15.09" shape="494.96,356.30 500.75,357.13 504.88,358.31 507.34,359.84 508.14,361.73"/>
    </edge>
    <edge id=":1364509483_5" function="internal">
        <lane id=":1364509483_5_0" index="0" allow="pedestrian bicycle" speed="2.78" length="2.92" width="2.00" shape="494.96,356.30 495.66,356.88 495.86,357.40 495.56,357.87 494.76,358.30"/>
    </edge>
    <edge id=":1364509483_6" function="internal">
        <lane id=":1364509483_6_0" index="0" allow="pedestrian bicycle" speed="7.38" length="11.16" width="2.00" shape="504.94,361.67 504.32,360.57 502.41,359.64 499.23,358.88 494.76,358.30"/>
    </edge>
    <edge id=":1364509483_7" function="internal">
        <lane id=":1364509483_7_0" index="0" disallow="tram rail_urban rail rail_electric rail_fast ship" speed="13.89" length="9.02" shape="504.94,361.67 504.45,359.09 503.27,357.52 501.97,355.95 501.13,353.38"/>
        <lane id=":1364509483_7_1" index="1" disallow="tram rail_urban rail rail_electric rail_fast ship" speed="13.89" length="9.02" shape="504.94,361.67 504.94,359.09 504.85,357.32 504.64,355.56 504.31,352.99"/>
    </edge>
    <edge id=":1364509483_9" function="internal">
        <lane id=":1364509483_9_0" index="0" disallow="tram rail_urban rail rail_electric rail_fast ship" speed="3.65" length="2.34" shape="504.94,361.67 505.76,360.49 506.56,360.10"/>
    </edge>
    <edge id=":1364509483_12" function="internal">
        <lane id=":1364509483_12_0" index="0" disallow="tram rail_urban rail rail_electric rail_fast ship" speed="3.65" length="2.34" shape="506.56,360.10 507.36,360.51 508.14,361.73"/>
    </edge>
    <edge id=":1504418820_0" function="internal">
        <lane id=":1504418820_0_0" index="0" allow="pedestrian delivery bicycle" speed="3.65" length="4.67" shape="589.39,-1.36 590.84,-1.31 591.59,-0.84 591.67,0.05 591.07,1.36"/>
    </edge>
    <edge id=":1504418822_0" function="internal">
        <lane id=":1504418822_0_0" index="0" allow="pedestrian delivery bicycle" speed="5.48" length="5.46" shape="538.99,141.81 538.03,140.92 536.89,140.54 535.57,140.66 534.08,141.30"/>
    </edge>
    <edge id=":1504418822_1" function="internal">
        <lane id=":1504418822_1_0" index="0" allow="pedestrian delivery bicycle" speed="5.56" length="9.37" shape="538.99,141.81 533.47,134.24"/>
    </edge>
    <edge id=":1504418822_2" function="internal">
        <lane id=":1504418822_2_0" index="0" allow="pedestrian delivery bicycle" speed="3.65" length="4.67" shape="538.99,141.81 538.90,140.37 539.29,139.57 540.17,139.40 541.53,139.87"/>
    </edge>
    <edge id=":1504418822_3" function="internal">
        <lane id=":1504418822_3_0" index="0" allow="pedestrian delivery bicycle" speed="5.56" length="9.23" shape="536.10,132.41 541.53,139.87"/>
    </edge>
    <edge id=":1504418822_4" function="internal">
        <lane id=":1504418822_4_0" index="0" allow="pedestrian delivery bicycle" speed="5.56" length="10.64" shape="536.10,132.41 537.43,135.05 537.53,137.41 536.42,139.49 534.08,141.30"/>
    </edge>
    <edge id=":1504418822_5" function="internal">
        <lane id=":1504418822_5_0" index="0" allow="pedestrian delivery bicycle" speed="3.65" length="4.67" shape="536.10,132.41 536.13,133.85 535.70,134.64 534.82,134.77 533.47,134.24"/>
    </edge>
    <edge id=":1504418822_6" function="internal">
        <lane id=":1504418822_6_0" index="0" allow="pedestrian delivery bicycle" speed="4.94" length="5.12" shape="532.50,138.52 533.63,137.65 534.16,136.65 534.11,135.51 533.47,134.24"/>
    </edge>
    <edge id=":1504418822_7" function="internal">
        <lane id=":1504418822_7_0" index="0" allow="pedestrian delivery bicycle" speed="5.56" length="10.12" shape="532.50,138.52 535.16,137.42 537.55,137.28 539.67,138.09 541.53,139.87"/>
    </edge>
    <edge id=":1504418822_8" function="internal">
        <lane id=":1504418822_8_0" index="0" allow="pedestrian delivery bicycle" speed="3.65" length="4.67" shape="532.50,138.52 533.94,138.62 534.69,139.12 534.73,140.01 534.08,141.30"/>
    </edge>
    <edge id=":1504418825_0" function="internal">
        <lane id=":1504418825_0_0" index="0" allow="pedestrian delivery bicycle" speed="5.56" length="8.91" shape="512.59,152.91 510.23,154.12 508.65,154.99 507.10,155.94 504.89,157.39"/>
    </edge>
    <edge id=":1504418825_1" function="internal">
        <lane id=":1504418825_1_0" index="0" allow="pedestrian delivery bicycle" speed="5.56" length="9.93" shape="512.59,152.91 510.13,153.74 507.88,153.60 505.84,152.49 504.02,150.42"/>
    </edge>
    <edge id=":1504418825_2" function="internal">
        <lane id=":1504418825_2_0" index="0" allow="pedestrian delivery bicycle" speed="3.65" length="4.67" shape="512.59,152.91 511.15,152.74 510.43,152.21 510.43,151.32 511.13,150.06"/>
    </edge>
    <edge id=":1504418825_3" function="internal">
        <lane id=":1504418825_3_0" index="0" allow="pedestrian delivery bicycle" speed="5.33" length="5.20" shape="506.68,148.63 507.65,149.75 508.72,150.37 509.88,150.47 511.13,150.06"/>
    </edge>
    <edge id=":1504418825_4" function="internal">
        <lane id=":1504418825_4_0" index="0" allow="pedestrian delivery bicycle" speed="5.56" length="10.21" shape="506.68,148.63 507.89,151.15 507.99,153.44 507.00,155.53 504.89,157.39"/>
    </edge>
    <edge id=":1504418825_5" function="internal">
        <lane id=":1504418825_5_0" index="0" allow="pedestrian delivery bicycle" speed="3.65" length="4.67" shape="506.68,148.63 506.68,150.07 506.24,150.85 505.35,150.97 504.02,150.42"/>
    </edge>
    <edge id=":1504418825_6" function="internal">
        <lane id=":1504418825_6_0" index="0" allow="pedestrian delivery bicycle" speed="5.03" length="5.02" shape="503.15,154.71 504.18,153.80 504.67,152.79 504.62,151.66 504.02,150.42"/>
    </edge>
    <edge id=":1504418825_7" function="internal">
        <lane id=":1504418825_7_0" index="0" allow="pedestrian delivery bicycle" speed="5.56" length="9.25" shape="503.15,154.71 505.45,153.22 507.05,152.23 508.69,151.32 511.13,150.06"/>
    </edge>
    <edge id=":1504418825_8" function="internal">
        <lane id=":1504418825_8_0" index="0" allow="pedestrian delivery bicycle" speed="3.65" length="4.67" shape="503.15,154.71 504.59,154.73 505.36,155.18 505.46,156.07 504.89,157.39"/>
    </edge>
    <edge id=":1504418827_0" function="internal">
        <lane id=":1504418827_0_0" index="0" allow="pedestrian delivery bicycle" speed="5.05" length="4.99" shape="582.72,191.04 581.48,190.45 580.36,190.39 579.33,190.87 578.42,191.89"/>
    </edge>
    <edge id=":1504418827_1" function="internal">
        <lane id=":1504418827_1_0" index="0" allow="pedestrian delivery bicycle" speed="5.56" length="13.20" shape="582.72,191.04 579.84,189.10 577.29,187.27 574.85,185.31 572.28,182.98"/>
    </edge>
    <edge id=":1504418827_2" function="internal">
        <lane id=":1504418827_2_0" index="0" allow="pedestrian delivery bicycle" speed="7.99" length="13.53" shape="582.72,191.04 579.52,188.38 577.75,185.61 577.40,182.73 578.48,179.74"/>
    </edge>
    <edge id=":1504418827_3" function="internal">
        <lane id=":1504418827_3_0" index="0" allow="pedestrian delivery bicycle" speed="3.65" length="4.67" shape="582.72,191.04 582.16,189.71 582.27,188.82 583.04,188.37 584.49,188.37"/>
    </edge>
    <edge id=":1504418827_4" function="internal">
        <lane id=":1504418827_4_0" index="0" allow="pedestrian delivery bicycle" speed="5.57" length="6.07" shape="584.00,182.98 583.23,184.68 583.05,186.15 583.47,187.38 584.49,188.37"/>
    </edge>
    <edge id=":1504418827_5" function="internal">
        <lane id=":1504418827_5_0" index="0" disallow="tram rail_urban rail rail_electric rail_fast ship" speed="13.89" length="10.41" shape="584.00,182.98 578.42,191.89"/>
        <lane id=":1504418827_5_1" index="1" disallow="tram rail_urban rail rail_electric rail_fast ship" speed="13.89" length="10.41" shape="581.24,181.36 575.76,190.09"/>
    </edge>
    <edge id=":1504418827_7" function="internal">
        <lane id=":1504418827_7_0" index="0" allow="pedestrian delivery bicycle" speed="6.61" length="4.03" shape="581.24,181.36 579.24,183.92 578.54,184.28"/>
    </edge>
    <edge id=":1504418827_8" function="internal">
        <lane id=":1504418827_8_0" index="0" disallow="tram rail_urban rail rail_electric rail_fast ship" speed="3.65" length="2.34" shape="581.24,181.36 579.94,181.99 579.05,181.93"/>
    </edge>
    <edge id=":1504418827_17" function="internal">
        <lane id=":1504418827_17_0" index="0" allow="pedestrian delivery bicycle" speed="6.61" length="7.01" shape="578.54,184.28 577.08,185.04 574.76,184.73 572.28,182.98"/>
    </edge>
    <edge id=":1504418827_18" function="internal">
        <lane id=":1504418827_18_0" index="0" disallow="tram rail_urban rail rail_electric rail_fast ship" speed="3.65" length="2.34" shape="579.05,181.93 578.56,181.18 578.48,179.74"/>
    </edge>
    <edge id=":1504418827_9" function="internal">
        <lane id=":1504418827_9_0" index="0" allow="pedestrian delivery bicycle" speed="4.69" length="4.94" shape="574.51,180.68 575.57,181.41 576.59,181.50 577.56,180.94 578.48,179.74"/>
    </edge>
    <edge id=":1504418827_10" function="internal">
        <lane id=":1504418827_10_0" index="0" allow="pedestrian delivery bicycle" speed="5.56" length="12.62" shape="574.51,180.68 577.00,182.95 579.28,184.79 581.68,186.49 584.49,188.37"/>
    </edge>
    <edge id=":1504418827_11" function="internal">
        <lane id=":1504418827_11_0" index="0" allow="pedestrian delivery bicycle" speed="7.42" length="10.47" shape="574.51,180.68 576.31,182.93 577.13,185.26 576.94,187.64 575.76,190.09"/>
    </edge>
    <edge id=":1504418827_12" function="internal">
        <lane id=":1504418827_12_0" index="0" allow="pedestrian delivery bicycle" speed="3.65" length="4.67" shape="574.51,180.68 574.81,182.09 574.55,182.94 573.70,183.24 572.28,182.98"/>
    </edge>
    <edge id=":1504418827_13" function="internal">
        <lane id=":1504418827_13_0" index="0" allow="pedestrian delivery bicycle" speed="5.75" length="5.93" shape="573.11,188.30 573.75,186.94 573.83,185.60 573.34,184.28 572.28,182.98"/>
    </edge>
    <edge id=":1504418827_14" function="internal">
        <lane id=":1504418827_14_0" index="0" disallow="tram rail_urban rail rail_electric rail_fast ship" speed="13.89" length="10.11" shape="573.11,188.30 578.48,179.74"/>
    </edge>
    <edge id=":1504418827_15" function="internal">
        <lane id=":1504418827_15_0" index="0" allow="pedestrian delivery bicycle" speed="7.65" length="2.80" shape="573.11,188.30 575.13,186.37"/>
    </edge>
    <edge id=":1504418827_16" function="internal">
        <lane id=":1504418827_16_0" index="0" disallow="tram rail_urban rail rail_electric rail_fast ship" speed="3.65" length="2.34" shape="573.11,188.30 574.45,187.76 575.33,187.87"/>
    </edge>
    <edge id=":1504418827_19" function="internal">
        <lane id=":1504418827_19_0" index="0" allow="pedestrian delivery bicycle" speed="7.65" length="10.00" shape="575.13,186.37 577.70,185.74 580.82,186.40 584.49,188.37"/>
    </edge>
    <edge id=":1504418827_20" function="internal">
        <lane id=":1504418827_20_0" index="0" disallow="tram rail_urban rail rail_electric rail_fast ship" speed="3.65" length="2.34" shape="575.33,187.87 575.77,188.65 575.76,190.09"/>
    </edge>
    <edge id=":1661566865_0" function="internal">
        <lane id=":1661566865_0_0" index="0" disallow="tram rail_urban rail rail_electric rail_fast ship" speed="13.89" length="0.26" shape="216.42,387.75 216.21,387.82"/>
        <lane id=":1661566865_0_1" index="1" disallow="tram rail_urban rail rail_electric rail_fast ship" speed="13.89" length="0.26" shape="215.48,384.69 215.21,384.78"/>
    </edge>
    <edge id=":1661566865_2" function="internal">
        <lane id=":1661566865_2_0" index="0" disallow="tram rail_urban rail rail_electric rail_fast ship" speed="13.89" length="0.34" shape="214.20,381.74 214.53,381.64"/>
    </edge>
    <edge id=":1661566871_0" function="internal">
        <lane id=":1661566871_0_0" index="0" disallow="tram rail_urban rail rail_electric rail_fast ship" speed="13.89" length="0.28" shape="156.01,407.67 155.75,407.75"/>
        <lane id=":1661566871_0_1" index="1" disallow="tram rail_urban rail rail_electric rail_fast ship" speed="13.89" length="0.28" shape="155.01,404.63 154.73,404.72"/>
    </edge>
    <edge id=":1661566871_2" function="internal">
        <lane id=":1661566871_2_0" index="0" disallow="tram rail_urban rail rail_electric rail_fast ship" speed="13.89" length="0.32" shape="153.70,401.69 154.00,401.59"/>
    </edge>
    <edge id=":1661566873_0" function="internal">
        <lane id=":1661566873_0_0" index="0" disallow="tram rail_urban rail rail_electric rail_fast ship" speed="13.89" length="18.23" shape="143.13,412.04 138.22,414.23 135.15,416.43 132.07,418.57 127.12,420.63"/>
        <lane id=":1661566873_0_1" index="1" disallow="tram rail_urban rail rail_electric rail_fast ship" speed="13.89" length="18.23" shape="142.11,409.01 137.22,411.20 134.17,413.38 131.11,415.52 126.17,417.57"/>
    </edge>
    <edge id=":1661566873_2" function="internal">
        <lane id=":1661566873_2_0" index="0" allow="private emergency authority army vip passenger hov taxi bus coach delivery truck trailer motorcycle evehicle custom1 custom2" speed="8.56" length="8.00" shape="142.11,409.01 136.85,410.17 134.25,409.89"/>
    </edge>
    <edge id=":1661566873_3" function="internal">
        <lane id=":1661566873_3_0" index="0" disallow="tram rail_urban rail rail_electric rail_fast ship" speed="3.65" length="2.34" shape="142.11,409.01 140.71,408.63 140.08,408.00"/>
    </edge>
    <edge id=":1661566873_11" function="internal">
        <lane id=":1661566873_11_0" index="0" allow="private emergency authority army vip passenger hov taxi bus coach delivery truck trailer motorcycle evehicle custom1 custom2" speed="8.56" length="9.22" shape="134.25,409.89 132.74,409.72 129.80,407.65 128.01,403.95"/>
    </edge>
    <edge id=":1661566873_12" function="internal">
        <lane id=":1661566873_12_0" index="0" disallow="tram rail_urban rail rail_electric rail_fast ship" speed="3.65" length="2.34" shape="140.08,408.00 140.20,407.12 141.08,405.97"/>
    </edge>
    <edge id=":1661566873_4" function="internal">
        <lane id=":1661566873_4_0" index="0" allow="private emergency authority army vip passenger hov taxi bus coach delivery truck trailer motorcycle evehicle custom1 custom2" speed="6.37" length="9.04" shape="134.19,402.29 135.18,404.59 136.65,405.97 138.62,406.43 141.08,405.97"/>
    </edge>
    <edge id=":1661566873_5" function="internal">
        <lane id=":1661566873_5_0" index="0" allow="private emergency authority army vip passenger hov taxi bus coach delivery truck trailer motorcycle evehicle custom1 custom2" speed="9.42" length="19.52" shape="134.19,402.29 134.88,407.69 133.77,412.03 130.87,415.33 126.17,417.57"/>
    </edge>
    <edge id=":1661566873_6" function="internal">
        <lane id=":1661566873_6_0" index="0" allow="private emergency authority army vip passenger hov taxi bus coach delivery truck trailer motorcycle evehicle custom1 custom2" speed="8.19" length="14.50" shape="131.10,403.12 131.63,407.16 130.82,410.40 128.69,412.85 125.23,414.52"/>
    </edge>
    <edge id=":1661566873_7" function="internal">
        <lane id=":1661566873_7_0" index="0" allow="private emergency authority army vip passenger hov taxi bus coach delivery truck trailer motorcycle evehicle custom1 custom2" speed="3.65" length="2.54" shape="131.10,403.12 130.64,404.49 129.97,405.08 129.77,405.04"/>
    </edge>
    <edge id=":1661566873_13" function="internal">
        <lane id=":1661566873_13_0" index="0" allow="private emergency authority army vip passenger hov taxi bus coach delivery truck trailer motorcycle evehicle custom1 custom2" speed="3.65" length="2.13" shape="129.77,405.04 129.10,404.90 128.01,403.95"/>
    </edge>
    <edge id=":1661566873_8" function="internal">
        <lane id=":1661566873_8_0" index="0" allow="private emergency authority army vip passenger hov taxi bus coach delivery truck trailer motorcycle evehicle custom1 custom2" speed="6.74" length="9.47" shape="124.29,411.46 126.51,410.38 127.87,408.77 128.37,406.62 128.01,403.95"/>
    </edge>
    <edge id=":1661566873_9" function="internal">
        <lane id=":1661566873_9_0" index="0" disallow="tram rail_urban rail rail_electric rail_fast ship" speed="13.89" length="17.66" shape="124.29,411.46 141.08,405.97"/>
    </edge>
    <edge id=":1661566873_10" function="internal">
        <lane id=":1661566873_10_0" index="0" disallow="tram rail_urban rail rail_electric rail_fast ship" speed="3.65" length="2.34" shape="124.29,411.46 125.67,411.87 126.29,412.52"/>
    </edge>
    <edge id=":1661566873_14" function="internal">
        <lane id=":1661566873_14_0" index="0" disallow="tram rail_urban rail rail_electric rail_fast ship" speed="3.65" length="2.34" shape="126.29,412.52 126.14,413.40 125.23,414.52"/>
    </edge>
    <edge id=":1661566876_0" function="internal">
        <lane id=":1661566876_0_0" index="0" allow="pedestrian bicycle" speed="2.78" length="0.29" width="2.00" shape="162.58,410.64 162.30,410.72"/>
    </edge>
    <edge id=":1661566876_1" function="internal">
        <lane id=":1661566876_1_0" index="0" allow="pedestrian bicycle" speed="2.78" length="0.24" width="2.00" shape="161.76,408.79 161.99,408.73"/>
    </edge>
    <edge id=":1661566878_0" function="internal">
        <lane id=":1661566878_0_0" index="0" allow="pedestrian bicycle" speed="2.78" length="3.98" width="2.00" shape="149.28,421.46 148.61,420.62 147.82,420.16 146.91,420.09 145.88,420.40"/>
    </edge>
    <edge id=":1661566878_1" function="internal">
        <lane id=":1661566878_1_0" index="0" allow="pedestrian bicycle" speed="2.78" length="6.62" width="2.00" shape="149.28,421.46 148.53,419.79 148.28,418.19 148.55,416.68 149.32,415.24"/>
    </edge>
    <edge id=":1661566878_2" function="internal">