<configuration>

<input>
<net-file value="deggendorf.net.xml"/> 
<route-files value="od_file.odtrips.xml"/> 
</input>
<output>
<output-file value="od_route_file.odtrips.rou.xml"/>
</output>
</configuration>
