<?xml version="1.0" encoding="UTF-8"?>

<!-- generated on 02/27/21 14:18:40 by Eclipse SUMO duarouter Version 1.8.0
<configuration xmlns:xsi="http://www.w3.org/2001/XMLSchema-instance" xsi:noNamespaceSchemaLocation="http://sumo.dlr.de/xsd/duarouterConfiguration.xsd">

    <input>
        <net-file value="test.net.xml"/>
        <route-files value="trips.trips.xml"/>
    </input>

    <output>
        <output-file value="test.rou.xml"/>
        <alternatives-output value="test.rou.alt.xml"/>
    </output>

    <time>
        <begin value="0"/>
        <end value="50"/>
    </time>

    <report>
        <no-warnings value="true"/>
        <ignore-errors value="true"/>
        <no-step-log value="true"/>
    </report>

</configuration>
-->

<routes xmlns:xsi="http://www.w3.org/2001/XMLSchema-instance" xsi:noNamespaceSchemaLocation="http://sumo.dlr.de/xsd/routes_file.xsd">
    <vehicle id="0" depart="0.00">
        <route edges="315751665 -315751665 -283269044 283269040 283269043#0 283269043#1 283269051 283269045 239548890 25979869#0 25979869#1 319141881 153483726 153483727 -315741047#1 -315741047#0 -317658811 -504390974 -153483742"/>
    </vehicle>
    <vehicle id="1" depart="1.00">
        <route edges="-478774559#0 -307026023#2"/>
    </vehicle>
    <vehicle id="2" depart="2.00">
        <route edges="367610095#1 231685728 227822441#2 227822441#3 34957954#0 34957954#1 267431165 26140198#0 26140198#1 26140198#2 283269038 283269039#0 283269039#1 317663645 -32826501#2 -32826501#1 -32826501#0 -601079037 -601079036 -478774559#2 -478774559#1 -478774559#0 -307026023#2 307026023#2"/>
    </vehicle>
    <vehicle id="3" depart="3.00">
        <route edges="50832113 589077225 587260076 587260077 587260075 372873772#0 372873772#1 372873772#2 372873772#3 587260081 -315751665 -283269044 283269040 317663646#0 317663646#1 317663645 283269048#0 283269048#1 283269047#0 283269047#1 284830091 -26140198#2 -26140198#1 -205034879#4"/>
    </vehicle>
    <vehicle id="4" depart="4.00">
        <route edges="227822441#0 227822441#1 227822441#2 227822441#3 227822441#4 227883100 155061537#0 155061537#1 245080680 585881243 154932240 -154932240"/>
    </vehicle>
    <vehicle id="5" depart="5.00">
        <route edges="-319141881 -25979869#1 -25979869#0 -239548890 -283269045 283269050 333871492 -317663645 -317663646#1 -317663646#0 -283269040 46949302#0 46949302#1 46949370#0 46949370#1 46949370#2 585881242 227822441#1 227822441#2"/>
    </vehicle>
    <vehicle id="6" depart="6.00">
        <route edges="-155061537#1 155061537#1 245080680 585881243 -272595158#1 -272595158#0"/>
    </vehicle>
    <vehicle id="7" depart="7.00">
        <route edges="315751667#0 315751667#1 -315751667#1 -315751667#0 -315751665 -283269044 283269040 283269043#0 283269043#1 283269051 283269045 239548890"/>
    </vehicle>
    <vehicle id="9" depart="9.00">
        <route edges="478774559#1 478774559#2 601079036 601079037 32826501#0 32826501#1 32826501#2 -317663645 283269046 603497863 283269051 283269045 239548890 25979869#0 25979869#1 319141881 153483726 153483727 -153483727 -153483726"/>
    </vehicle>
    <vehicle id="10" depart="10.00">
        <route edges="478774559#1 478774559#2 601079036 601079037 32826501#0 32826501#1 32826501#2 -317663645 -317663646#1 -317663646#0 -283269040 283269044 315751665 315751667#0"/>
    </vehicle>
    <vehicle id="11" depart="11.00">
        <route edges="153483742 504390974 317658811 315741047#0 315741047#1 -153483727 -153483726 -319141881 -25979869#1 -25979869#0 -239548890 -283269045 283269050 333871492 283269048#0 283269048#1 283269047#0 283269047#1 284830091 -26140198#2 -26140198#1"/>
    </vehicle>
    <vehicle id="13" depart="13.00">
        <route edges="-230330760#1 -230330760#0"/>
    </vehicle>
    <vehicle id="15" depart="15.00">
        <route edges="478774559#1 478774559#2 601079036 601079037 32826501#0 32826501#1 32826501#2 -317663645 283269046 603497863 283269051 283269045 239548890 25979869#0 25979869#1 319141881"/>
    </vehicle>
    <vehicle id="16" depart="16.00">
        <route edges="272595158#0 272595158#1 -585881243 -245080680 -155061537#1 -155061537#0 -227883100 367610095#0 367610095#1 231685728 227822441#2 227822441#3 34957954#0 34957954#1 267431165 80718242#2"/>
    </vehicle>
    <vehicle id="17" depart="17.00">
        <route edges="205034879#0 205034879#1 205034879#2 205034879#3 205034879#4 26140198#1 26140198#2 283269038 283269039#0 283269039#1 283269046 603497863 283269051 283269045 239548890 25979869#0"/>
    </vehicle>
    <vehicle id="20" depart="20.00">
        <route edges="34957954#1 267431165 80718242#2 367342883 -585881243 -245080680 -155061537#1"/>
    </vehicle>
    <vehicle id="21" depart="21.00">
        <route edges="-319141881 -25979869#1 -25979869#0 -239548890 -283269045 283269050 333871492 -32826501#2"/>
    </vehicle>
    <vehicle id="22" depart="22.00">
        <route edges="-230330760#1 -230330760#0 -79399335#0 41576875 316611081#0 316611081#1 316611081#2 316611081#3 620579024 283269037#0 283269037#1 283269038 283269041#0 283269041#1 -283269040 283269044 315751665 315751667#0 315751667#1 -315751667#1 -315751667#0"/>
    </vehicle>
    <vehicle id="23" depart="23.00">
        <route edges="-230330760#1 -230330760#0 -79399335#0 41576875 316611081#0 316611081#1 316611081#2 316611081#3 620579024 283269037#0 283269037#1 283269038 283269039#0 283269039#1 283269046 603497863 283269051 283269045 239548890 25979869#0 25979869#1 319141881 153483726 153483727 -153483727 -153483726 -319141881"/>
    </vehicle>
    <vehicle id="25" depart="25.00">
        <route edges="155061537#1 245080680 585881243 -585881243 -245080680 -155061537#1 -155061537#0 -227883100 367610095#0 367610095#1 231685728 227822441#2 227822441#3 34957954#0 34957954#1 267431165 26140198#0 26140198#1 26140198#2 283269038 283269039#0 283269039#1 283269046 603497863 283269051 283269045 -283269045"/>
    </vehicle>
    <vehicle id="26" depart="26.00">
        <route edges="-41576875 79399335#0 79399335#1 205034879#2 205034879#3 205034879#4 -26140198#0 80718242#2 367342883 -585881243 -245080680 -155061537#1 -155061537#0 -227883100 367610095#0 367610095#1 367610095#2 77860253#0 77860253#1"/>
    </vehicle>
    <vehicle id="27" depart="27.00">
        <route edges="315751667#0 315751667#1 -315751667#1 -315751667#0 -315751665 -283269044 283269040 317663646#0 317663646#1 317663645 283269048#0 283269048#1 283269047#0 283269047#1 284830091 -26140198#2 -26140198#1 -26140198#0 -267431165 267431165"/>
    </vehicle>
    <vehicle id="28" depart="28.00">
        <route edges="-315751665 -283269044 283269040 283269043#0 283269043#1 283269051 283269045 239548890 25979869#0 25979869#1 319141881"/>
    </vehicle>
    <vehicle id="29" depart="29.00">
        <route edges="-307026023#1 -307026023#0 307026023#0 307026023#1 307026023#2 478774559#0 478774559#1 478774559#2 601079036 601079037 32826501#0 32826501#1 32826501#2 -317663645 283269046 603497863 283269051 283269045 239548890 25979869#0 25979869#1 319141881 153483726 153483727 -315741047#1 -315741047#0 -317658811 -504390974"/>
    </vehicle>
    <vehicle id="30" depart="30.00">
        <route edges="80718242#2 367342883 -585881243 -245080680 -155061537#1 -155061537#0 -227883100 367610095#0 367610095#1 231685728 227822441#2 227822441#3 34957954#0 34957954#1 267431165 26140198#0 26140198#1 26140198#2 283269038 283269039#0 283269039#1 317663645 283269048#0 283269048#1 283269047#0"/>
    </vehicle>
    <vehicle id="31" depart="31.00">
        <route edges="272595158#0 272595158#1 -585881243 -245080680 -155061537#1 -155061537#0 -227883100 367610095#0 367610095#1 231685728 227822441#2 227822441#3 34957954#0 34957954#1 267431165 26140198#0 26140198#1 26140198#2 283269038 283269041#0 283269041#1 -283269040 283269044 315751665"/>
    </vehicle>
    <vehicle id="33" depart="33.00">
        <route edges="-319141881 -25979869#1 -25979869#0 -239548890 -283269045 283269050 333871492 283269048#0 283269048#1 283269047#0 283269047#1 284830091 -26140198#2 -26140198#1 -26140198#0 80718242#2 367342883 154932240 -154932240"/>
    </vehicle>
    <vehicle id="34" depart="34.00">
        <route edges="-79399335#1 -79399335#0 41576875 316611081#0 316611081#1 316611081#2 316611081#3 620579024 283269037#0 283269037#1 283269038 283269039#0 283269039#1 283269046 603497863 283269051 283269045 239548890 25979869#0 25979869#1 319141881 153483726 153483727 -315741047#1 -315741047#0 -317658811"/>
    </vehicle>
    <vehicle id="35" depart="35.00">
        <route edges="-316611081#3 316611081#3 620579024 283269037#0 283269037#1 -26140198#2 -26140198#1 -26140198#0 80718242#2 367342883 -585881243 -245080680 -155061537#1 -155061537#0 -227883100 367610095#0 367610095#1 367610095#2 77860253#0 77860253#1"/>
    </vehicle>
    <vehicle id="36" depart="36.00">
        <route edges="48836483 -48836483 -153483727 -153483726 -319141881 -25979869#1 -25979869#0 -239548890 -283269045 283269050 333871492 -32826501#2 -32826501#1 -32826501#0 -601079037 -601079036 -478774559#2"/>
    </vehicle>
    <vehicle id="37" depart="37.00">
        <route edges="315751667#0 315751667#1 -315751667#1 -315751667#0 -587260081 -372873772#3 -372873772#2 -372873772#1 -372873772#0 -587260075 -587260077 -587260076 -589077225 -50832113"/>
    </vehicle>
    <vehicle id="38" depart="38.00">
        <route edges="601079036 601079037 32826501#0 32826501#1 32826501#2 283269048#0 283269048#1 283269047#0 283269047#1 284830091 -26140198#2 -26140198#1 -26140198#0 80718242#2 367342883 -585881243 -245080680 -155061537#1 155061537#1"/>
    </vehicle>
    <vehicle id="39" depart="39.00">
        <route edges="-41576875 79399335#0 -79399335#0 41576875 316611081#0 316611081#1 316611081#2 316611081#3 620579024 283269037#0 283269037#1 283269038 283269041#0 283269041#1 -283269040 283269044 315751665 315751667#0 315751667#1 -315751667#1 -315751667#0"/>
    </vehicle>
    <vehicle id="40" depart="40.00">
        <route edges="272595158#0 272595158#1 -585881243 -245080680 -155061537#1 -155061537#0 -227883100 367610095#0 367610095#1 231685728 227822441#2 227822441#3 34957954#0 34957954#1 267431165 26140198#0 26140198#1 26140198#2 283269038 283269039#0 283269039#1 317663645 283269048#0 283269048#1 283269047#0 283269047#1 283269049 -620579024 -316611081#3 -316611081#2"/>
    </vehicle>
    <vehicle id="41" depart="41.00">
        <route edges="283269044 -283269044 283269040 283269043#0 283269043#1 283269051 283269045 239548890 25979869#0 25979869#1 319141881 153483726 153483727 -315741047#1 -315741047#0 -317658811 -504390974 504390974"/>
    </vehicle>
    <vehicle id="42" depart="42.00">
        <route edges="205034879#3 205034879#4 26140198#1 26140198#2 283269038 283269039#0 283269039#1 317663645 -32826501#2 -32826501#1 -32826501#0 -601079037 -601079036 -478774559#2 -478774559#1 -478774559#0 -307026023#2 -307026023#1"/>
    </vehicle>
    <vehicle id="43" depart="43.00">
        <route edges="80718242#2 367342883 -585881243 -245080680 -155061537#1 -155061537#0 -227883100 227883100"/>
    </vehicle>
    <vehicle id="44" depart="44.00">
        <route edges="-230330760#1 230330760#1 205034879#4 -26140198#0 80718242#2 367342883 -585881243 -245080680 -155061537#1"/>
    </vehicle>
    <vehicle id="45" depart="45.00">
        <route edges="-245080680 -155061537#1 -155061537#0 -227883100 367610095#0 367610095#1 231685728 227822441#2 227822441#3 34957954#0 34957954#1 267431165 26140198#0 26140198#1 26140198#2 283269038 283269041#0 283269041#1"/>
    </vehicle>
    <vehicle id="46" depart="46.00">
        <route edges="46949370#2 585881242 227822441#1 227822441#2 227822441#3 34957954#0 34957954#1 267431165 26140198#0 -205034879#4 -205034879#3 -205034879#2 -79399335#1"/>
    </vehicle>
    <vehicle id="47" depart="47.00">
        <route edges="-205034879#4 205034879#4 26140198#1 26140198#2 283269038 283269041#0 283269041#1 -283269040 283269044 315751665 -587260081 -372873772#3 -372873772#2 -372873772#1 -372873772#0 -587260075 -587260077 -587260076 -589077225 -50832113"/>
    </vehicle>
    <vehicle id="48" depart="48.00">
        <route edges="80718242#2 367342883 -585881243 -245080680 -155061537#1 -155061537#0 -227883100 367610095#0 367610095#1 231685728 227822441#2 227822441#3 34957954#0 34957954#1 267431165 26140198#0 -205034879#4 -230330760#1 230330760#1"/>
    </vehicle>
    <vehicle id="49" depart="49.00">
        <route edges="80718242#1 26140198#0 26140198#1 26140198#2 283269038 283269041#0 283269041#1 -283269040 46949302#0 46949302#1 46949370#0 46949370#1"/>
    </vehicle>
</routes>
