<?xml version="1.0" encoding="UTF-8"?>
<!-- generated on 2021-02-27 14:34:49.328274 by $Id$ v1_8_0+0044-4820708f3d
  options: -n deggendorf.net.xml -r deggendorf.rou.xml -e 50 -l
-->
<routes xmlns:xsi="http://www.w3.org/2001/XMLSchema-instance" xsi:noNamespaceSchemaLocation="http://sumo.dlr.de/xsd/routes_file.xsd">
    <trip id="0" depart="0.00" from="315751665" to="-153483742"/>
    <trip id="1" depart="1.00" from="-478774559#0" to="-307026023#2"/>
    <trip id="2" depart="2.00" from="367610095#1" to="307026023#2"/>
    <trip id="3" depart="3.00" from="50832113" to="-205034879#4"/>
    <trip id="4" depart="4.00" from="227822441#0" to="-154932240"/>
    <trip id="5" depart="5.00" from="-319141881" to="227822441#2"/>
    <trip id="6" depart="6.00" from="-155061537#1" to="-272595158#0"/>
    <trip id="7" depart="7.00" from="315751667#0" to="239548890"/>
    <trip id="8" depart="8.00" from="-319141881" to="26704826"/>
    <trip id="9" depart="9.00" from="478774559#1" to="-153483726"/>
    <trip id="10" depart="10.00" from="478774559#1" to="315751667#0"/>
    <trip id="11" depart="11.00" from="153483742" to="-26140198#1"/>
    <trip id="12" depart="12.00" from="80718242#0" to="-48176267#0"/>
    <trip id="13" depart="13.00" from="-230330760#1" to="-230330760#0"/>
    <trip id="14" depart="14.00" from="48176267#0" to="26704826"/>
    <trip id="15" depart="15.00" from="478774559#1" to="319141881"/>
    <trip id="16" depart="16.00" from="272595158#0" to="80718242#2"/>
    <trip id="17" depart="17.00" from="205034879#0" to="25979869#0"/>
    <trip id="18" depart="18.00" from="48176267#0" to="283269039#0"/>
    <trip id="19" depart="19.00" from="48176267#0" to="26140198#1"/>
    <trip id="20" depart="20.00" from="34957954#1" to="-155061537#1"/>
    <trip id="21" depart="21.00" from="-319141881" to="-32826501#2"/>
    <trip id="22" depart="22.00" from="-230330760#1" to="-315751667#0"/>
    <trip id="23" depart="23.00" from="-230330760#1" to="-319141881"/>
    <trip id="24" depart="24.00" from="315741048#0" to="-48176267#0"/>
    <trip id="25" depart="25.00" from="155061537#1" to="-283269045"/>
    <trip id="26" depart="26.00" from="-41576875" to="77860253#1"/>
    <trip id="27" depart="27.00" from="315751667#0" to="267431165"/>
    <trip id="28" depart="28.00" from="-315751665" to="319141881"/>
    <trip id="29" depart="29.00" from="-307026023#1" to="-504390974"/>
    <trip id="30" depart="30.00" from="80718242#2" to="283269047#0"/>
    <trip id="31" depart="31.00" from="272595158#0" to="315751665"/>
    <trip id="32" depart="32.00" from="48176267#0" to="367342883"/>
    <trip id="33" depart="33.00" from="-319141881" to="-154932240"/>
    <trip id="34" depart="34.00" from="-79399335#1" to="-317658811"/>
    <trip id="35" depart="35.00" from="-316611081#3" to="77860253#1"/>
    <trip id="36" depart="36.00" from="48836483" to="-478774559#2"/>
    <trip id="37" depart="37.00" from="315751667#0" to="-50832113"/>
    <trip id="38" depart="38.00" from="601079036" to="155061537#1"/>
    <trip id="39" depart="39.00" from="-41576875" to="-315751667#0"/>
    <trip id="40" depart="40.00" from="272595158#0" to="-316611081#2"/>
    <trip id="41" depart="41.00" from="283269044" to="504390974"/>
    <trip id="42" depart="42.00" from="205034879#3" to="-307026023#1"/>
    <trip id="43" depart="43.00" from="80718242#2" to="227883100"/>
    <trip id="44" depart="44.00" from="-230330760#1" to="-155061537#1"/>
    <trip id="45" depart="45.00" from="-245080680" to="283269041#1"/>
    <trip id="46" depart="46.00" from="46949370#2" to="-79399335#1"/>
    <trip id="47" depart="47.00" from="-205034879#4" to="-50832113"/>
    <trip id="48" depart="48.00" from="80718242#2" to="230330760#1"/>
    <trip id="49" depart="49.00" from="80718242#1" to="46949370#1"/>
</routes>
